[n03:33620] MCW rank 0 bound to socket 0[core 0[hwt 0-1]], socket 0[core 1[hwt 0-1]], socket 0[core 2[hwt 0-1]], socket 0[core 3[hwt 0-1]], socket 0[core 4[hwt 0-1]], socket 0[core 5[hwt 0-1]], socket 0[core 6[hwt 0-1]], socket 0[core 7[hwt 0-1]], socket 0[core 8[hwt 0-1]], socket 0[core 9[hwt 0-1]], socket 0[core 10[hwt 0-1]], socket 0[core 11[hwt 0-1]], socket 0[core 12[hwt 0-1]], socket 0[core 13[hwt 0-1]], socket 0[core 14[hwt 0-1]], socket 0[core 15[hwt 0-1]]: [BB/BB/BB/BB/BB/BB/BB/BB/BB/BB/BB/BB/BB/BB/BB/BB][../../../../../../../../../../../../../../../..]
ARIEL-SST: Did not find ARIEL_OVERRIDE_POOL in the environment, no override applies.
ARIEL-SST PIN tool activating with 1 threads
ARIEL: Default memory pool set to 0
ARIEL: Tool is configured to begin with profiling immediately.
ARIEL: Starting program.
Identified routine: malloc/_malloc, replacing with Ariel equivalent...
Identified routine: malloc/_malloc, replacing with Ariel equivalent...
Identified routine: free/_free, replacing with Ariel equivalent...
Identified routine: cudaMalloc, replacing with GPGPU-Sim equivilant...
Replacement complete. (0x7fb2d45339e0)
Identified routine: cudaFree, replacing with GPGPU-Sim equivilant...
Replacement complete. (0x7fb2d4533be0)
Identified routine: cudaMemcpy, replacing with GPGPU-Sim equivilant...
Replacement complete. (0x7fb2d4533f20)
Identified routine: cudaGetLastError, replacing with GPGPU-Sim equivilant...
Replacement complete. (0x7fb2d4535200)
Identified routine: cudaConfigureCall, replacing with GPGPU-Sim equivilant...
Replacement complete. (0x7fb2d4535480)
Identified routine: cudaSetupArgument, replacing with GPGPU-Sim equivilant...
Replacement complete. (0x7fb2d45356c0)
Identified routine: cudaLaunch, replacing with GPGPU-Sim equivilant...
Replacement complete. (0x7fb2d4535ca0)
Identified routine: cudaOccupancyMaxActiveBlocksPerMultiprocessorWithFlags, replacing with GPGPU-Sim equivilant...
Replacement complete. (0x7fb2d4537b90)
Identified routine: __cudaRegisterFatBinary, replacing with GPGPU-Sim equivilant...
Replacement complete. (0x7fb2d453ae70)
Identified routine: __cudaRegisterFunction, replacing with GPGPU-Sim equivilant...
Replacement complete. (0x7fb2d453c740)
Identified routine: __cudaRegisterVar, replacing with GPGPU-Sim equivilant...
Replacement complete. (0x7fb2d453ca40)
Identified routine: malloc/_malloc, replacing with Ariel equivalent...
Identified routine: free/_free, replacing with Ariel equivalent...
Identified routine: malloc/_malloc, replacing with Ariel equivalent...
Identified routine: clock_gettime, replacing with Ariel equivalent...
Replacement complete.
Kokkos::Cuda::initialize WARNING: running kernels compiled for compute capability 6.1 on device with compute capability 5.2 , this will likely reduce potential performance.
Kokkos::Cuda device GPGPU-Sim_vGPGPU-Sim Simulator Version 3.2.2  capability 5.2 does not support unified virtual address space
KokkosKernels_UnitTest_Cuda: cuda_runtime_api.cc:297: function_info* CUctx_st::get_kernel(const char*): Assertion `i != m_kernel_lookup.end()' failed.
Pin app terminated abnormally due to signal 6.

real	8m25.250s
user	6m2.960s
sys	1m18.008s
