[n01:39938] MCW rank 0 bound to socket 0[core 0[hwt 0-1]], socket 0[core 1[hwt 0-1]], socket 0[core 2[hwt 0-1]], socket 0[core 3[hwt 0-1]], socket 0[core 4[hwt 0-1]], socket 0[core 5[hwt 0-1]], socket 0[core 6[hwt 0-1]], socket 0[core 7[hwt 0-1]], socket 0[core 8[hwt 0-1]], socket 0[core 9[hwt 0-1]], socket 0[core 10[hwt 0-1]], socket 0[core 11[hwt 0-1]], socket 0[core 12[hwt 0-1]], socket 0[core 13[hwt 0-1]], socket 0[core 14[hwt 0-1]], socket 0[core 15[hwt 0-1]]: [BB/BB/BB/BB/BB/BB/BB/BB/BB/BB/BB/BB/BB/BB/BB/BB][../../../../../../../../../../../../../../../..]
ARIEL-SST: Did not find ARIEL_OVERRIDE_POOL in the environment, no override applies.
ARIEL-SST PIN tool activating with 1 threads
ARIEL: Default memory pool set to 0
ARIEL: Tool is configured to begin with profiling immediately.
ARIEL: Starting program.
Identified routine: malloc/_malloc, replacing with Ariel equivalent...
Identified routine: malloc/_malloc, replacing with Ariel equivalent...
Identified routine: free/_free, replacing with Ariel equivalent...
Identified routine: cudaMalloc, replacing with GPGPU-Sim equivilant...
Replacement complete. (0x7fd34f9529e0)
Identified routine: cudaFree, replacing with GPGPU-Sim equivilant...
Replacement complete. (0x7fd34f952be0)
Identified routine: cudaMemcpy, replacing with GPGPU-Sim equivilant...
Replacement complete. (0x7fd34f952f20)
Identified routine: cudaGetLastError, replacing with GPGPU-Sim equivilant...
Replacement complete. (0x7fd34f954200)
Identified routine: cudaConfigureCall, replacing with GPGPU-Sim equivilant...
Replacement complete. (0x7fd34f954480)
Identified routine: cudaSetupArgument, replacing with GPGPU-Sim equivilant...
Replacement complete. (0x7fd34f9546c0)
Identified routine: cudaLaunch, replacing with GPGPU-Sim equivilant...
Replacement complete. (0x7fd34f954ca0)
Identified routine: cudaOccupancyMaxActiveBlocksPerMultiprocessorWithFlags, replacing with GPGPU-Sim equivilant...
Replacement complete. (0x7fd34f956b90)
Identified routine: __cudaRegisterFatBinary, replacing with GPGPU-Sim equivilant...
Replacement complete. (0x7fd34f959e70)
Identified routine: __cudaRegisterFunction, replacing with GPGPU-Sim equivilant...
Replacement complete. (0x7fd34f95b740)
Identified routine: __cudaRegisterVar, replacing with GPGPU-Sim equivilant...
Replacement complete. (0x7fd34f95ba40)
Identified routine: malloc/_malloc, replacing with Ariel equivalent...
Identified routine: free/_free, replacing with Ariel equivalent...
Identified routine: malloc/_malloc, replacing with Ariel equivalent...
Identified routine: clock_gettime, replacing with Ariel equivalent...
Replacement complete.
cuobjdump fatal   : Value 'sm_70' is not defined for option 'gpu-architecture'
cuobjdump info    : No PTX file found to extract from '/home/chughes/tools/sst/sst-gpgpusim-toplevel/new-tests/kokkos_tests/runs/asum/./KokkosKernels_UnitTest_Cuda'. You may try with -all option.
Kokkos::Cuda::initialize WARNING: running kernels compiled for compute capability 6.1 on device with compute capability 5.2 , this will likely reduce potential performance.
Kokkos::Cuda device GPGPU-Sim_vGPGPU-Sim Simulator Version 3.2.2  capability 5.2 does not support unified virtual address space
FATAL: l2gcache_7 (MSHR), Error: mshr did not find entry with address 0xc064c780
SST Fatal Backtrace Information:
    0 : /ascldap/users/chughes/tools/sst/sst-gpgpusim-toplevel/sst-core/bin/sst(_ZNK3SST6Output5fatalEjPKcS2_iS2_z+0x247) [0x4eddb7]
    1 : /ascldap/users/chughes/tools/sst/sst-gpgpusim-toplevel/sst-elements/lib/sst-elements-library/libmemHierarchy.so(_ZN3SST12MemHierarchy4MSHR6lookupEm+0x146) [0x7fa2983b5ea6]
    2 : /ascldap/users/chughes/tools/sst/sst-gpgpusim-toplevel/sst-elements/lib/sst-elements-library/libmemHierarchy.so(_ZN3SST12MemHierarchy5Cache20processCacheResponseEPNS0_8MemEventEm+0x49) [0x7fa2982f8689]
    3 : /ascldap/users/chughes/tools/sst/sst-gpgpusim-toplevel/sst-elements/lib/sst-elements-library/libmemHierarchy.so(_ZN3SST12MemHierarchy5Cache12processEventEPNS0_12MemEventBaseEb+0x671) [0x7fa2982e8601]
    4 : /ascldap/users/chughes/tools/sst/sst-gpgpusim-toplevel/sst-elements/lib/sst-elements-library/libmemHierarchy.so(_ZN3SST12MemHierarchy5Cache20processIncomingEventEPNS_5EventE+0x4c) [0x7fa2982e953c]
    5 : /ascldap/users/chughes/tools/sst/sst-gpgpusim-toplevel/sst-core/bin/sst(_ZN3SST10Simulation3runEv+0x1a7) [0x4f7fa7]
    6 : /ascldap/users/chughes/tools/sst/sst-gpgpusim-toplevel/sst-core/bin/sst() [0x4ad46a]
    7 : /ascldap/users/chughes/tools/sst/sst-gpgpusim-toplevel/sst-core/bin/sst(main+0xef3) [0x49ec23]
    8 : /lib64/libc.so.6(__libc_start_main+0xf5) [0x7fa2b109f3d5]
    9 : /ascldap/users/chughes/tools/sst/sst-gpgpusim-toplevel/sst-core/bin/sst() [0x4ace7a]

real	13m42.268s
user	0m0.315s
sys	0m1.586s
