[n03:13891] MCW rank 0 bound to socket 0[core 0[hwt 0-1]], socket 0[core 1[hwt 0-1]], socket 0[core 2[hwt 0-1]], socket 0[core 3[hwt 0-1]], socket 0[core 4[hwt 0-1]], socket 0[core 5[hwt 0-1]], socket 0[core 6[hwt 0-1]], socket 0[core 7[hwt 0-1]], socket 0[core 8[hwt 0-1]], socket 0[core 9[hwt 0-1]], socket 0[core 10[hwt 0-1]], socket 0[core 11[hwt 0-1]], socket 0[core 12[hwt 0-1]], socket 0[core 13[hwt 0-1]], socket 0[core 14[hwt 0-1]], socket 0[core 15[hwt 0-1]]: [BB/BB/BB/BB/BB/BB/BB/BB/BB/BB/BB/BB/BB/BB/BB/BB][../../../../../../../../../../../../../../../..]
ARIEL-SST: Did not find ARIEL_OVERRIDE_POOL in the environment, no override applies.
ARIEL-SST PIN tool activating with 1 threads
ARIEL: Default memory pool set to 0
ARIEL: Tool is configured to begin with profiling immediately.
ARIEL: Starting program.
Identified routine: malloc/_malloc, replacing with Ariel equivalent...
Identified routine: malloc/_malloc, replacing with Ariel equivalent...
Identified routine: free/_free, replacing with Ariel equivalent...
Identified routine: cudaMalloc, replacing with GPGPU-Sim equivilant...
Replacement complete. (0x7fb50d4739e0)
Identified routine: cudaFree, replacing with GPGPU-Sim equivilant...
Replacement complete. (0x7fb50d473be0)
Identified routine: cudaMemcpy, replacing with GPGPU-Sim equivilant...
Replacement complete. (0x7fb50d473f20)
Identified routine: cudaGetLastError, replacing with GPGPU-Sim equivilant...
Replacement complete. (0x7fb50d475200)
Identified routine: cudaConfigureCall, replacing with GPGPU-Sim equivilant...
Replacement complete. (0x7fb50d475480)
Identified routine: cudaSetupArgument, replacing with GPGPU-Sim equivilant...
Replacement complete. (0x7fb50d4756c0)
Identified routine: cudaLaunch, replacing with GPGPU-Sim equivilant...
Replacement complete. (0x7fb50d475ca0)
Identified routine: cudaOccupancyMaxActiveBlocksPerMultiprocessorWithFlags, replacing with GPGPU-Sim equivilant...
Replacement complete. (0x7fb50d477b90)
Identified routine: __cudaRegisterFatBinary, replacing with GPGPU-Sim equivilant...
Replacement complete. (0x7fb50d47ae70)
Identified routine: __cudaRegisterFunction, replacing with GPGPU-Sim equivilant...
Replacement complete. (0x7fb50d47c740)
Identified routine: __cudaRegisterVar, replacing with GPGPU-Sim equivilant...
Replacement complete. (0x7fb50d47ca40)
Identified routine: malloc/_malloc, replacing with Ariel equivalent...
Identified routine: free/_free, replacing with Ariel equivalent...
Identified routine: malloc/_malloc, replacing with Ariel equivalent...
Identified routine: clock_gettime, replacing with Ariel equivalent...
Replacement complete.
